16
Atom positions detected by PMT
O 6.796875 5.351563 4.000000 0.820498
O 4.375000 6.367188 5.000000 0.818806
O 6.640625 4.492188 5.000000 0.781233
O 2.851563 4.492188 5.000000 0.739370
N 2.343750 3.398438 4.000000 0.721960
C 2.187500 5.078125 6.000000 0.666575
C 5.234375 4.062500 5.000000 0.648910
C 4.218750 4.960938 5.000000 0.628021
C 7.695313 3.867188 6.000000 0.605738
H 5.078125 3.046875 5.000000 0.862981
H 8.554688 4.140625 5.000000 0.789321
H 1.406250 3.164063 5.000000 0.663889
H 3.750000 6.953125 4.000000 0.649045
H 5.078125 3.046875 7.000000 0.569713
H 5.078125 3.046875 3.000000 0.548412
H 8.554688 4.140625 7.000000 0.542236
